## Compartment Fires with a ceiling vent
## Ravishankar Selvaraj (2036915)
## Sujithira Padmanaban (2037420)

&HEAD CHID = 'Compartment_fire', TITLE = 'Simulation_17'  /

## Creating mesh - IJK(mesh size in each direction)
## XB= Dimension in Each direction(Creates Block)
## &MESH IJK =150,150,150, XB =-0.505,0.505,-0.505, 0.505,0.0,1.01/


&MESH ID='1' IJK=30,30,30 XB=-0.5050,-0.3030,-0.5050,-0.3030,0.0000,0.2020 /
&MESH ID='2' IJK=30,30,30 XB=-0.5050,-0.3030,-0.5050,-0.3030,0.2020,0.4040 /
&MESH ID='3' IJK=30,30,30 XB=-0.5050,-0.3030,-0.5050,-0.3030,0.4040,0.6060 /
&MESH ID='4' IJK=30,30,30 XB=-0.5050,-0.3030,-0.5050,-0.3030,0.6060,0.8080 /
&MESH ID='5' IJK=30,30,30 XB=-0.5050,-0.3030,-0.5050,-0.3030,0.8080,1.0100 /
&MESH ID='6' IJK=30,30,30 XB=-0.5050,-0.3030,-0.3030,-0.1010,0.0000,0.2020 /
&MESH ID='7' IJK=30,30,30 XB=-0.5050,-0.3030,-0.3030,-0.1010,0.2020,0.4040 /
&MESH ID='8' IJK=30,30,30 XB=-0.5050,-0.3030,-0.3030,-0.1010,0.4040,0.6060 /
&MESH ID='9' IJK=30,30,30 XB=-0.5050,-0.3030,-0.3030,-0.1010,0.6060,0.8080 /
&MESH ID='10' IJK=30,30,30 XB=-0.5050,-0.3030,-0.3030,-0.1010,0.8080,1.0100 /
&MESH ID='11' IJK=30,30,30 XB=-0.5050,-0.3030,-0.1010,0.1010,0.0000,0.2020 /
&MESH ID='12' IJK=30,30,30 XB=-0.5050,-0.3030,-0.1010,0.1010,0.2020,0.4040 /
&MESH ID='13' IJK=30,30,30 XB=-0.5050,-0.3030,-0.1010,0.1010,0.4040,0.6060 /
&MESH ID='14' IJK=30,30,30 XB=-0.5050,-0.3030,-0.1010,0.1010,0.6060,0.8080 /
&MESH ID='15' IJK=30,30,30 XB=-0.5050,-0.3030,-0.1010,0.1010,0.8080,1.0100 /
&MESH ID='16' IJK=30,30,30 XB=-0.5050,-0.3030,0.1010,0.3030,0.0000,0.2020 /
&MESH ID='17' IJK=30,30,30 XB=-0.5050,-0.3030,0.1010,0.3030,0.2020,0.4040 /
&MESH ID='18' IJK=30,30,30 XB=-0.5050,-0.3030,0.1010,0.3030,0.4040,0.6060 /
&MESH ID='19' IJK=30,30,30 XB=-0.5050,-0.3030,0.1010,0.3030,0.6060,0.8080 /
&MESH ID='20' IJK=30,30,30 XB=-0.5050,-0.3030,0.1010,0.3030,0.8080,1.0100 /
! ... 105 like lines cut

## Time Limit
&TIME T_END = 150.0 /
&MISC TMPA =20.0 /Room Temp

## Reaction Fuel
&REAC FUEL = 'N-HEPTANE'
FYI = 'Heptane, C_7 H_16'
C = 7.
H = 16.
CO_YIELD = 0.08
SOOT_YIELD = 0.015 
CRITICAL_FLAME_TEMPERATURE=1497.0
LOWER_OXYGEN_LIMIT = 0.134 /

&COMB EXTINCTION_MODEL='EXTINCTION 2' /

&SURF ID='FIRE', HRRPUA = 495.72, RAMP_Q = 'fireramp', COLOR = 'RASPBERRY'  / From graph T=20 °C
&VENT XB=-0.1,0.1,-0.1,0.1, 0.12,0.12, SURF_ID='FIRE'/ Diametre(0.2)

&RAMP ID='fireramp', T=0, F=0.00 /
&RAMP ID='fireramp', T=5, F=0.43 /
&RAMP ID='fireramp', T=10, F=0.82 /
&RAMP ID='fireramp', T=15, F=0.94 /
&RAMP ID='fireramp', T=20, F=0.95 /
&RAMP ID='fireramp', T=25, F=1.00 /
&RAMP ID='fireramp', T=30, F=0.75 /
&RAMP ID='fireramp', T=35, F=0.79 /
&RAMP ID='fireramp', T=40, F=0.85 /
&RAMP ID='fireramp', T=45, F=0.92 /
&RAMP ID='fireramp', T=50, F=0.79 /
&RAMP ID='fireramp', T=55, F=0.73 /
&RAMP ID='fireramp', T=60, F=0.91 /
&RAMP ID='fireramp', T=65, F=0.76 /


## Domain surface Opening
&VENT DB='XMIN',SURF_ID='OPEN'/
&VENT DB='XMAX',SURF_ID='OPEN'/
&VENT DB='YMIN',SURF_ID='OPEN'/
&VENT DB='YMAX',SURF_ID='OPEN'/
&VENT DB='ZMIN',SURF_ID='OPEN'/
&VENT DB='ZMAX',SURF_ID='OPEN'/

## Stainless Steel 316
&MATL ID='steel',CONDUCTIVITY=16.26, SPECIFIC_HEAT=0.5021, DENSITY=8027.2 /
&SURF ID='SSteel', MATL_ID='steel', COLOR='GRAY',TRANSPARENCY=0.9,
THICKNESS=0.005 /

## Compartment walls
&OBST XB= -0.5,-0.5 ,  -0.5,0.5 ,  0.0,0.75,  SURF_ID='SSteel'/ Wall 1
&OBST XB= -0.5,0.5,  -0.5,-0.5,    0.0,0.75,  SURF_ID='SSteel' / Wall 2
&OBST XB= 0.5,0.5 ,  -0.5,0.5 ,    0.0,0.75,  SURF_ID='SSteel' / Wall 3
&OBST XB= -0.5,0.5,   0.5,0.5,     0.0,0.75,TRANSPARENCY=1.0,  SURF_ID='SSteel'/ Wall 4

## Floor and ceiling
&OBST XB= -0.5,0.5 ,  -0.5,0.5 ,  0.75,0.75, SURF_ID='SSteel'/ Ceiling
&OBST XB= -0.5,0.5 ,  -0.5,0.5 ,  0.0,0.0,   SURF_ID='SSteel'/ Floor

## Vent area 1(change)
&HOLE XB = -0.5,-0.25,   -0.25,-0.5,  0.745,0.755  / Vent(0.25m)

## Loadcell,insulator,burner
&OBST XB= -0.15,0.15, -0.15,0.15, 0.0,0.07,    COLOR='RED', TRANSPARENCY=0.2 / Load cell 
&OBST XB= -0.1,0.1,-0.1,0.1, 0.07,0.12,    COLOR='GREEN', TRANSPARENCY=0.2 / Cylinder Burner


##INSULATOR
&MATL ID = 'INSULATOR', CONDUCTIVITY = 0.041, SPECIFIC_HEAT = 2.09, DENSITY = 229. /
&SURF ID = 'BRICK', MATL_ID = 'INSULATOR', COLOR = 'BLUE', BACKING = 'EXPOSED', THICKNESS = 0.01 /
&OBST XB= -0.2,0.2 ,    -0.2,0.2 ,  0.07,0.07, TRANSPARENCY=0.2, SURF_ID='BRICK' / Insulator

## Thermocouples Diametre
&PROP ID='Thermocouple',DIAMETER=0.005, EMISSIVITY=0.85, DENSITY=8908.0, SPECIFIC_HEAT=0.44 /

## Thermocouples (RIGHT WALL)
&DEVC ID='TC-01', XYZ=0.0,0.25,0.05, QUANTITY='THERMOCOUPLE', PROP_ID='Thermocouple',TIME_HISTORY=.TRUE. /
&DEVC ID='TC-02', XYZ=0.0,0.25,0.1,  QUANTITY='THERMOCOUPLE', PROP_ID='Thermocouple',TIME_HISTORY=.TRUE. /
&DEVC ID='TC-03', XYZ=0.0,0.25,0.2,  QUANTITY='THERMOCOUPLE', PROP_ID='Thermocouple',TIME_HISTORY=.TRUE. /
&DEVC ID='TC-04', XYZ=0.0,0.25,0.3,  QUANTITY='THERMOCOUPLE', PROP_ID='Thermocouple',TIME_HISTORY=.TRUE. /
&DEVC ID='TC-05', XYZ=0.0,0.25,0.4,  QUANTITY='THERMOCOUPLE', PROP_ID='Thermocouple',TIME_HISTORY=.TRUE. /
&DEVC ID='TC-06', XYZ=0.0,0.25,0.5,  QUANTITY='THERMOCOUPLE', PROP_ID='Thermocouple',TIME_HISTORY=.TRUE. /
&DEVC ID='TC-07', XYZ=0.0,0.25,0.6,  QUANTITY='THERMOCOUPLE', PROP_ID='Thermocouple',TIME_HISTORY=.TRUE. /
&DEVC ID='TC-08', XYZ=0.0,0.25,0.7,  QUANTITY='THERMOCOUPLE', PROP_ID='Thermocouple',TIME_HISTORY=.TRUE. /

## Thermocouples (BACK WALL)
&DEVC ID='TC-09', XYZ=-0.45,0.0,0.7,  QUANTITY='THERMOCOUPLE', PROP_ID='Thermocouple',TIME_HISTORY=.TRUE. /
&DEVC ID='TC-10', XYZ=-0.45,0.0,0.65, QUANTITY='THERMOCOUPLE', PROP_ID='Thermocouple',TIME_HISTORY=.TRUE. /
&DEVC ID='TC-11', XYZ=-0.45,0.0,0.55, QUANTITY='THERMOCOUPLE', PROP_ID='Thermocouple',TIME_HISTORY=.TRUE. /
&DEVC ID='TC-12', XYZ=-0.45,0.0,0.45, QUANTITY='THERMOCOUPLE', PROP_ID='Thermocouple',TIME_HISTORY=.TRUE. /
&DEVC ID='TC-13', XYZ=-0.45,0.0,0.35, QUANTITY='THERMOCOUPLE', PROP_ID='Thermocouple',TIME_HISTORY=.TRUE. /
&DEVC ID='TC-14', XYZ=-0.45,0.0,0.25, QUANTITY='THERMOCOUPLE', PROP_ID='Thermocouple',TIME_HISTORY=.TRUE. /
&DEVC ID='TC-15', XYZ=-0.45,0.0,0.15, QUANTITY='THERMOCOUPLE', PROP_ID='Thermocouple',TIME_HISTORY=.TRUE. /
&DEVC ID='TC-16', XYZ=-0.45,0.0,0.05, QUANTITY='THERMOCOUPLE', PROP_ID='Thermocouple',TIME_HISTORY=.TRUE. /


##Gas Analyzer
&DEVC ID='Gas-Analyser', XYZ=0.0,-0.25,0.0015, QUANTITY='VOLUME FRACTION', SPEC_ID='OXYGEN' /

&DEVC ID='Gas-Analyser-1', XYZ=0.0,-0.25,0.15, QUANTITY='VOLUME FRACTION', SPEC_ID='OXYGEN' /

&SLCF PBY = 0, QUANTITY = 'TEMPERATURE', CELL_CENTERED = .TRUE. /
&SLCF PBX = 0, QUANTITY = 'TEMPERATURE', CELL_CENTERED = .TRUE. /

&SLCF PBY = -0.25, QUANTITY = 'VOLUME FRACTION',SPEC_ID='OXYGEN', CELL_CENTERED = .TRUE. /
&SLCF PBX = 0, QUANTITY = 'VOLUME FRACTION',SPEC_ID='OXYGEN', CELL_CENTERED = .TRUE. /


&TAIL /
